LAMMPS (11 Aug 2017)
# 3d Lennard-Jones fluid
# Validate with https://mmlapps.nist.gov/srs/LJ_PURE/md.htm

variable        density equal 0.776
variable        Nmols equal 500
variable L equal (500/0.776)^(1.0/3.0)

# Initialize simulation
clear
units		lj      # Units type: Lennard-Jones
dimension 3         # 3D simulation
boundary p p p      # Periodic boundary conditions in all directions
atom_style	atomic  # Atom style: atoms

# Create atoms
region		box block 0 8.63712943023425 0 8.63712943023425 0 8.63712943023425
create_box	1 box                   # Create the simulation box, 1 type of atom, in box
Created orthogonal box = (0 0 0) to (8.63713 8.63713 8.63713)
create_atoms	1 random 500 12345 NULL
Created 500 atoms
mass		1 1.0                   # Specify mass of atom type 1

# Force field
pair_style	lj/cut 3.0              # Use truncated Lennard-Jones potential
pair_modify tail yes                # with long range corrections
pair_coeff	1 1 1.0 1.0 3.0         # and specified coefficients and cutoff

# Relax the configuration
minimize 1.e-4 1.e-4 100 1000
  update every 1 steps, delay 0 steps, check yes
Step Temp E_pair E_mol TotEng Press
0            0 9.3921912e+09            0 9.3921912e+09 2.9153386e+10
Loop time of 0.175606 on 1 procs for 100 steps with 500 atoms

Minimization stats:
  Stopping criterion = max iterations
  Energy initial, next-to-last, final =
  Force two-norm initial, final = 5.08362e+14 29.3202
  Force max component initial, final = 2.12942e+14 7.91411
  Final line search alpha, max atom move = 0.0107516 0.0850894
  Iterations, force evaluations = 100 190

# Initial atom velocities
velocity	all create 0.95 54321   # Last 2 arguments are temperature and random seed

# Neighbor lists
neighbor	0.3 bin                 # Padding of neighbors beyond the cutoff
neigh_modify	every 20 delay 0 check no

# Other settings
fix		1 all nve                   # NVE ensemble
timestep 0.002

# Output settings
# Save the time evolution of the positions of all of the atoms
#dump		id all atom 100 dump.LJ_fluid

# Compute and save the radial distribution function, with specified # of bins
compute myRDF all rdf 50
fix 2 all ave/time 4 10 500 c_myRDF[*] file out.rdf mode vector

# Specify how often to save thermodynamic properties and which ones. Goes into log.lammps
thermo		100
thermo_style one
#thermo_style custom step time pe ke etotal temp press

# Run simulation for specified number of time steps
run		20000
  update every 20 steps, delay 0 steps, check no
Step Temp E_pair E_mol TotEng Press
100         0.95    -6.864784            0    -5.442634   -1.9239126
Averages over the last 101 of 201 rows, steps 10100 to 20100:
Temp E_pair E_mol TotEng Press
0.456897 -6.11934 0 -5.43537 -1.39168
Loop time of 11.8777 on 1 procs for 20000 steps with 500 atoms
