LAMMPS (11 Aug 2017)
# 3d Lennard-Jones fluid
# Validate with https://mmlapps.nist.gov/srs/LJ_PURE/md.htm

# Initialize simulation
clear
units		lj      # Units type: Lennard-Jones
dimension 3         # 3D simulation
boundary p p p      # Periodic boundary conditions in all directions
atom_style	atomic  # Atom style: atoms

# Create atoms
lattice		sc 0.776                # Lattice type and density
Lattice spacing in x,y,z = 1.08821 1.08821 1.08821
region		box block 0 8 0 8 0 8   # Specify simulation box dimensions, in # of atoms
create_box	1 box                   # Create the simulation box, 1 type of atom, in box
Created orthogonal box = (0 0 0) to (8.70568 8.70568 8.70568)
create_atoms	1 box               # Fill entire simulation box with atoms of type 1
Created 512 atoms
mass		1 1.0                   # Specify mass of atom type 1

# Initial atom velocities
velocity	all create 0.95 54321 rot yes  # Input temperature and random seed

# Force field
pair_style	lj/cut 3.0              # Use truncated Lennard-Jones potential
pair_modify tail yes                # with long range corrections
pair_coeff	1 1 1.0 1.0 3.0         # and specified coefficients and cutoff

# Neighbor lists
neighbor	0.3 bin                 # Padding of neighbors beyond the cutoff
neigh_modify	every 20 delay 0 check no

# Other settings
fix		1 all nve                   # NVE ensemble
timestep 0.002

# Output settings
# Save the time evolution of the positions of all of the atoms
#dump		id all atom 200 dump.LJ_fluid

# Compute and save the radial distribution function, with specified # of bins
compute myRDF all rdf 50
fix 2 all ave/time 8 20 20000 c_myRDF[*] file out.rdf mode vector

# Specify how often to save thermodynamic properties & which ones
compute msd all msd com yes
thermo		100
thermo_style custom step time pe ke etotal temp press c_msd[4]

# Run simulation for specified number of time steps
run		20000
  update every 20 steps, delay 0 steps, check no
Step Time PotEng KinEng TotEng Temp Press c_msd[4]
0            0   -5.6102331    1.4222168   -4.1880163         0.95  -0.99044061 3.9443045e-29
Averages over the last 101 of 201 rows, steps 10000 to 20000:
PotEng KinEng TotEng Temp Press c_msd[4]
-5.49795 1.2926 -4.20535 0.863418 0.0640797 11.4741
Loop time of 11.6661 on 1 procs for 20000 steps with 512 atoms
